CM Antenna 3
CE
GW	1	1	-0.500	0	1.250	-0.400	0	1.250	0.005
GW	2	1	-0.500	0	1.250	-0.500	0	1.150	0.005
GW	3	1	-0.400	0	1.250	-0.300	0	1.250	0.005
GW	4	1	-0.400	0	1.250	-0.400	0	1.150	0.005
GW	5	1	-0.300	0	1.250	-0.200	0	1.250	0.005
GW	6	1	-0.300	0	1.250	-0.300	0	1.150	0.005
GW	7	1	-0.200	0	1.250	-0.100	0	1.250	0.005
GW	8	1	-0.200	0	1.250	-0.200	0	1.150	0.005
GW	9	1	-0.100	0	1.250	0	0	1.250	0.005
GW	10	1	-0.100	0	1.250	-0.100	0	1.150	0.005
GW	11	1	0	0	1.250	0.100	0	1.250	0.005
GW	12	1	0	0	1.250	0	0	1.150	0.005
GW	13	1	0.100	0	1.250	0.200	0	1.250	0.005
GW	14	1	0.100	0	1.250	0.100	0	1.150	0.005
GW	15	1	0.200	0	1.250	0.300	0	1.250	0.005
GW	16	1	0.200	0	1.250	0.200	0	1.150	0.005
GW	17	1	0.300	0	1.250	0.400	0	1.250	0.005
GW	18	1	0.300	0	1.250	0.300	0	1.150	0.005
GW	19	1	0.400	0	1.250	0.500	0	1.250	0.005
GW	20	1	0.400	0	1.250	0.400	0	1.150	0.005
GW	21	1	0.500	0	1.250	0.500	0	1.150	0.005
GW	22	1	-0.500	0	1.150	-0.400	0	1.150	0.005
GW	23	1	-0.500	0	1.150	-0.500	0	1.050	0.005
GW	24	1	-0.400	0	1.150	-0.300	0	1.150	0.005
GW	25	1	-0.400	0	1.150	-0.400	0	1.050	0.005
GW	26	1	-0.300	0	1.150	-0.200	0	1.150	0.005
GW	27	1	-0.300	0	1.150	-0.300	0	1.050	0.005
GW	28	1	-0.200	0	1.150	-0.100	0	1.150	0.005
GW	29	1	-0.200	0	1.150	-0.200	0	1.050	0.005
GW	30	1	-0.100	0	1.150	0	0	1.150	0.005
GW	31	1	-0.100	0	1.150	-0.100	0	1.050	0.005
GW	32	1	0	0	1.150	0.100	0	1.150	0.005
GW	33	1	0	0	1.150	0	0	1.050	0.005
GW	34	1	0.100	0	1.150	0.200	0	1.150	0.005
GW	35	1	0.100	0	1.150	0.100	0	1.050	0.005
GW	36	1	0.200	0	1.150	0.300	0	1.150	0.005
GW	37	1	0.200	0	1.150	0.200	0	1.050	0.005
GW	38	1	0.300	0	1.150	0.400	0	1.150	0.005
GW	39	1	0.300	0	1.150	0.300	0	1.050	0.005
GW	40	1	0.400	0	1.150	0.500	0	1.150	0.005
GW	41	1	0.400	0	1.150	0.400	0	1.050	0.005
GW	42	1	0.500	0	1.150	0.500	0	1.050	0.005
GW	43	1	-0.500	0	1.050	-0.400	0	1.050	0.005
GW	44	1	-0.500	0	1.050	-0.500	0	0.950	0.005
GW	45	1	-0.400	0	1.050	-0.300	0	1.050	0.005
GW	46	1	-0.400	0	1.050	-0.400	0	0.950	0.005
GW	47	1	-0.300	0	1.050	-0.200	0	1.050	0.005
GW	48	1	-0.300	0	1.050	-0.300	0	0.950	0.005
GW	49	1	-0.200	0	1.050	-0.100	0	1.050	0.005
GW	50	1	-0.200	0	1.050	-0.200	0	0.950	0.005
GW	51	1	-0.100	0	1.050	0	0	1.050	0.005
GW	52	1	-0.100	0	1.050	-0.100	0	0.950	0.005
GW	53	1	0	0	1.050	0.100	0	1.050	0.005
GW	54	1	0	0	1.050	0	0	0.950	0.005
GW	55	1	0.100	0	1.050	0.200	0	1.050	0.005
GW	56	1	0.100	0	1.050	0.100	0	0.950	0.005
GW	57	1	0.200	0	1.050	0.300	0	1.050	0.005
GW	58	1	0.200	0	1.050	0.200	0	0.950	0.005
GW	59	1	0.300	0	1.050	0.400	0	1.050	0.005
GW	60	1	0.300	0	1.050	0.300	0	0.950	0.005
GW	61	1	0.400	0	1.050	0.500	0	1.050	0.005
GW	62	1	0.400	0	1.050	0.400	0	0.950	0.005
GW	63	1	0.500	0	1.050	0.500	0	0.950	0.005
GW	64	1	-0.500	0	0.950	-0.400	0	0.950	0.005
GW	65	1	-0.500	0	0.950	-0.500	0	0.850	0.005
GW	66	1	-0.400	0	0.950	-0.300	0	0.950	0.005
GW	67	1	-0.400	0	0.950	-0.400	0	0.850	0.005
GW	68	1	-0.300	0	0.950	-0.200	0	0.950	0.005
GW	69	1	-0.300	0	0.950	-0.300	0	0.850	0.005
GW	70	1	-0.200	0	0.950	-0.100	0	0.950	0.005
GW	71	1	-0.200	0	0.950	-0.200	0	0.850	0.005
GW	72	1	-0.100	0	0.950	0	0	0.950	0.005
GW	73	1	-0.100	0	0.950	-0.100	0	0.850	0.005
GW	74	1	0	0	0.950	0.100	0	0.950	0.005
GW	75	1	0	0	0.950	0	0	0.850	0.005
GW	76	1	0.100	0	0.950	0.200	0	0.950	0.005
GW	77	1	0.100	0	0.950	0.100	0	0.850	0.005
GW	78	1	0.200	0	0.950	0.300	0	0.950	0.005
GW	79	1	0.200	0	0.950	0.200	0	0.850	0.005
GW	80	1	0.300	0	0.950	0.400	0	0.950	0.005
GW	81	1	0.300	0	0.950	0.300	0	0.850	0.005
GW	82	1	0.400	0	0.950	0.500	0	0.950	0.005
GW	83	1	0.400	0	0.950	0.400	0	0.850	0.005
GW	84	1	0.500	0	0.950	0.500	0	0.850	0.005
GW	85	1	-0.500	0	0.850	-0.400	0	0.850	0.005
GW	86	1	-0.500	0	0.850	-0.500	0	0.750	0.005
GW	87	1	-0.400	0	0.850	-0.300	0	0.850	0.005
GW	88	1	-0.400	0	0.850	-0.400	0	0.750	0.005
GW	89	1	-0.300	0	0.850	-0.200	0	0.850	0.005
GW	90	1	-0.300	0	0.850	-0.300	0	0.750	0.005
GW	91	1	-0.200	0	0.850	-0.100	0	0.850	0.005
GW	92	1	-0.200	0	0.850	-0.200	0	0.750	0.005
GW	93	1	-0.100	0	0.850	0	0	0.850	0.005
GW	94	1	-0.100	0	0.850	-0.100	0	0.750	0.005
GW	95	1	0	0	0.850	0.100	0	0.850	0.005
GW	96	1	0	0	0.850	0	0	0.750	0.005
GW	97	1	0.100	0	0.850	0.200	0	0.850	0.005
GW	98	1	0.100	0	0.850	0.100	0	0.750	0.005
GW	99	1	0.200	0	0.850	0.300	0	0.850	0.005
GW	100	1	0.200	0	0.850	0.200	0	0.750	0.005
GW	101	1	0.300	0	0.850	0.400	0	0.850	0.005
GW	102	1	0.300	0	0.850	0.300	0	0.750	0.005
GW	103	1	0.400	0	0.850	0.500	0	0.850	0.005
GW	104	1	0.400	0	0.850	0.400	0	0.750	0.005
GW	105	1	0.500	0	0.850	0.500	0	0.750	0.005
GW	106	1	-0.500	0	0.750	-0.400	0	0.750	0.005
GW	107	1	-0.500	0	0.750	-0.500	0	0.650	0.005
GW	108	1	-0.400	0	0.750	-0.300	0	0.750	0.005
GW	109	1	-0.400	0	0.750	-0.400	0	0.650	0.005
GW	110	1	-0.300	0	0.750	-0.200	0	0.750	0.005
GW	111	1	-0.300	0	0.750	-0.300	0	0.650	0.005
GW	112	1	-0.200	0	0.750	-0.100	0	0.750	0.005
GW	113	1	-0.200	0	0.750	-0.200	0	0.650	0.005
GW	114	1	-0.100	0	0.750	0	0	0.750	0.005
GW	115	1	-0.100	0	0.750	-0.100	0	0.650	0.005
GW	116	1	0	0	0.750	0.100	0	0.750	0.005
GW	117	1	0	0	0.750	0	0	0.650	0.005
GW	118	1	0.100	0	0.750	0.200	0	0.750	0.005
GW	119	1	0.100	0	0.750	0.100	0	0.650	0.005
GW	120	1	0.200	0	0.750	0.300	0	0.750	0.005
GW	121	1	0.200	0	0.750	0.200	0	0.650	0.005
GW	122	1	0.300	0	0.750	0.400	0	0.750	0.005
GW	123	1	0.300	0	0.750	0.300	0	0.650	0.005
GW	124	1	0.400	0	0.750	0.500	0	0.750	0.005
GW	125	1	0.400	0	0.750	0.400	0	0.650	0.005
GW	126	1	0.500	0	0.750	0.500	0	0.650	0.005
GW	127	1	-0.500	0	0.650	-0.400	0	0.650	0.005
GW	128	1	-0.500	0	0.650	-0.500	0	0.550	0.005
GW	129	1	-0.400	0	0.650	-0.300	0	0.650	0.005
GW	130	1	-0.400	0	0.650	-0.400	0	0.550	0.005
GW	131	1	-0.300	0	0.650	-0.200	0	0.650	0.005
GW	132	1	-0.300	0	0.650	-0.300	0	0.550	0.005
GW	133	1	-0.200	0	0.650	-0.100	0	0.650	0.005
GW	134	1	-0.200	0	0.650	-0.200	0	0.550	0.005
GW	135	1	-0.100	0	0.650	0	0	0.650	0.005
GW	136	1	-0.100	0	0.650	-0.100	0	0.550	0.005
GW	137	1	0	0	0.650	0.100	0	0.650	0.005
GW	138	1	0	0	0.650	0	0	0.550	0.005
GW	139	1	0.100	0	0.650	0.200	0	0.650	0.005
GW	140	1	0.100	0	0.650	0.100	0	0.550	0.005
GW	141	1	0.200	0	0.650	0.300	0	0.650	0.005
GW	142	1	0.200	0	0.650	0.200	0	0.550	0.005
GW	143	1	0.300	0	0.650	0.400	0	0.650	0.005
GW	144	1	0.300	0	0.650	0.300	0	0.550	0.005
GW	145	1	0.400	0	0.650	0.500	0	0.650	0.005
GW	146	1	0.400	0	0.650	0.400	0	0.550	0.005
GW	147	1	0.500	0	0.650	0.500	0	0.550	0.005
GW	148	1	-0.500	0	0.550	-0.400	0	0.550	0.005
GW	149	1	-0.500	0	0.550	-0.500	0	0.450	0.005
GW	150	1	-0.400	0	0.550	-0.300	0	0.550	0.005
GW	151	1	-0.400	0	0.550	-0.400	0	0.450	0.005
GW	152	1	-0.300	0	0.550	-0.200	0	0.550	0.005
GW	153	1	-0.300	0	0.550	-0.300	0	0.450	0.005
GW	154	1	-0.200	0	0.550	-0.100	0	0.550	0.005
GW	155	1	-0.200	0	0.550	-0.200	0	0.450	0.005
GW	156	1	-0.100	0	0.550	0	0	0.550	0.005
GW	157	1	-0.100	0	0.550	-0.100	0	0.450	0.005
GW	158	1	0	0	0.550	0.100	0	0.550	0.005
GW	159	1	0	0	0.550	0	0	0.450	0.005
GW	160	1	0.100	0	0.550	0.200	0	0.550	0.005
GW	161	1	0.100	0	0.550	0.100	0	0.450	0.005
GW	162	1	0.200	0	0.550	0.300	0	0.550	0.005
GW	163	1	0.200	0	0.550	0.200	0	0.450	0.005
GW	164	1	0.300	0	0.550	0.400	0	0.550	0.005
GW	165	1	0.300	0	0.550	0.300	0	0.450	0.005
GW	166	1	0.400	0	0.550	0.500	0	0.550	0.005
GW	167	1	0.400	0	0.550	0.400	0	0.450	0.005
GW	168	1	0.500	0	0.550	0.500	0	0.450	0.005
GW	169	1	-0.500	0	0.450	-0.400	0	0.450	0.005
GW	170	1	-0.500	0	0.450	-0.500	0	0.350	0.005
GW	171	1	-0.400	0	0.450	-0.300	0	0.450	0.005
GW	172	1	-0.400	0	0.450	-0.400	0	0.350	0.005
GW	173	1	-0.300	0	0.450	-0.200	0	0.450	0.005
GW	174	1	-0.300	0	0.450	-0.300	0	0.350	0.005
GW	175	1	-0.200	0	0.450	-0.100	0	0.450	0.005
GW	176	1	-0.200	0	0.450	-0.200	0	0.350	0.005
GW	177	1	-0.100	0	0.450	0	0	0.450	0.005
GW	178	1	-0.100	0	0.450	-0.100	0	0.350	0.005
GW	179	1	0	0	0.450	0.100	0	0.450	0.005
GW	180	1	0	0	0.450	0	0	0.350	0.005
GW	181	1	0.100	0	0.450	0.200	0	0.450	0.005
GW	182	1	0.100	0	0.450	0.100	0	0.350	0.005
GW	183	1	0.200	0	0.450	0.300	0	0.450	0.005
GW	184	1	0.200	0	0.450	0.200	0	0.350	0.005
GW	185	1	0.300	0	0.450	0.400	0	0.450	0.005
GW	186	1	0.300	0	0.450	0.300	0	0.350	0.005
GW	187	1	0.400	0	0.450	0.500	0	0.450	0.005
GW	188	1	0.400	0	0.450	0.400	0	0.350	0.005
GW	189	1	0.500	0	0.450	0.500	0	0.350	0.005
GW	190	1	-0.500	0	0.350	-0.400	0	0.350	0.005
GW	191	1	-0.500	0	0.350	-0.500	0	0.250	0.005
GW	192	1	-0.400	0	0.350	-0.300	0	0.350	0.005
GW	193	1	-0.400	0	0.350	-0.400	0	0.250	0.005
GW	194	1	-0.300	0	0.350	-0.200	0	0.350	0.005
GW	195	1	-0.300	0	0.350	-0.300	0	0.250	0.005
GW	196	1	-0.200	0	0.350	-0.100	0	0.350	0.005
GW	197	1	-0.200	0	0.350	-0.200	0	0.250	0.005
GW	198	1	-0.100	0	0.350	0	0	0.350	0.005
GW	199	1	-0.100	0	0.350	-0.100	0	0.250	0.005
GW	200	1	0	0	0.350	0.100	0	0.350	0.005
GW	201	1	0	0	0.350	0	0	0.250	0.005
GW	202	1	0.100	0	0.350	0.200	0	0.350	0.005
GW	203	1	0.100	0	0.350	0.100	0	0.250	0.005
GW	204	1	0.200	0	0.350	0.300	0	0.350	0.005
GW	205	1	0.200	0	0.350	0.200	0	0.250	0.005
GW	206	1	0.300	0	0.350	0.400	0	0.350	0.005
GW	207	1	0.300	0	0.350	0.300	0	0.250	0.005
GW	208	1	0.400	0	0.350	0.500	0	0.350	0.005
GW	209	1	0.400	0	0.350	0.400	0	0.250	0.005
GW	210	1	0.500	0	0.350	0.500	0	0.250	0.005
GW	211	1	-0.500	0	0.250	-0.400	0	0.250	0.005
GW	212	1	-0.500	0	0.250	-0.500	0	0.150	0.005
GW	213	1	-0.400	0	0.250	-0.300	0	0.250	0.005
GW	214	1	-0.400	0	0.250	-0.400	0	0.150	0.005
GW	215	1	-0.300	0	0.250	-0.200	0	0.250	0.005
GW	216	1	-0.300	0	0.250	-0.300	0	0.150	0.005
GW	217	1	-0.200	0	0.250	-0.100	0	0.250	0.005
GW	218	1	-0.200	0	0.250	-0.200	0	0.150	0.005
GW	219	1	-0.100	0	0.250	0	0	0.250	0.005
GW	220	1	-0.100	0	0.250	-0.100	0	0.150	0.005
GW	221	1	0	0	0.250	0.100	0	0.250	0.005
GW	222	1	0	0	0.250	0	0	0.150	0.005
GW	223	1	0.100	0	0.250	0.200	0	0.250	0.005
GW	224	1	0.100	0	0.250	0.100	0	0.150	0.005
GW	225	1	0.200	0	0.250	0.300	0	0.250	0.005
GW	226	1	0.200	0	0.250	0.200	0	0.150	0.005
GW	227	1	0.300	0	0.250	0.400	0	0.250	0.005
GW	228	1	0.300	0	0.250	0.300	0	0.150	0.005
GW	229	1	0.400	0	0.250	0.500	0	0.250	0.005
GW	230	1	0.400	0	0.250	0.400	0	0.150	0.005
GW	231	1	0.500	0	0.250	0.500	0	0.150	0.005
GW	232	1	-0.500	0	0.150	-0.400	0	0.150	0.005
GW	233	1	-0.500	0	0.150	-0.500	0	0.050	0.005
GW	234	1	-0.400	0	0.150	-0.300	0	0.150	0.005
GW	235	1	-0.400	0	0.150	-0.400	0	0.050	0.005
GW	236	1	-0.300	0	0.150	-0.200	0	0.150	0.005
GW	237	1	-0.300	0	0.150	-0.300	0	0.050	0.005
GW	238	1	-0.200	0	0.150	-0.100	0	0.150	0.005
GW	239	1	-0.200	0	0.150	-0.200	0	0.050	0.005
GW	240	1	-0.100	0	0.150	0	0	0.150	0.005
GW	241	1	-0.100	0	0.150	-0.100	0	0.050	0.005
GW	242	1	0	0	0.150	0.100	0	0.150	0.005
GW	243	1	0	0	0.150	0	0	0.050	0.005
GW	244	1	0.100	0	0.150	0.200	0	0.150	0.005
GW	245	1	0.100	0	0.150	0.100	0	0.050	0.005
GW	246	1	0.200	0	0.150	0.300	0	0.150	0.005
GW	247	1	0.200	0	0.150	0.200	0	0.050	0.005
GW	248	1	0.300	0	0.150	0.400	0	0.150	0.005
GW	249	1	0.300	0	0.150	0.300	0	0.050	0.005
GW	250	1	0.400	0	0.150	0.500	0	0.150	0.005
GW	251	1	0.400	0	0.150	0.400	0	0.050	0.005
GW	252	1	0.500	0	0.150	0.500	0	0.050	0.005
GW	253	1	-0.500	0	0.050	-0.400	0	0.050	0.005
GW	254	1	-0.500	0	0.050	-0.500	0	-0.050	0.005
GW	255	1	-0.400	0	0.050	-0.300	0	0.050	0.005
GW	256	1	-0.400	0	0.050	-0.400	0	-0.050	0.005
GW	257	1	-0.300	0	0.050	-0.200	0	0.050	0.005
GW	258	1	-0.300	0	0.050	-0.300	0	-0.050	0.005
GW	259	1	-0.200	0	0.050	-0.100	0	0.050	0.005
GW	260	1	-0.200	0	0.050	-0.200	0	-0.050	0.005
GW	261	1	-0.100	0	0.050	0	0	0.050	0.005
GW	262	1	-0.100	0	0.050	-0.100	0	-0.050	0.005
GW	263	1	0	0	0.050	0.100	0	0.050	0.005
GW	264	1	0	0	0.050	0	0	-0.050	0.005
GW	265	1	0.100	0	0.050	0.200	0	0.050	0.005
GW	266	1	0.100	0	0.050	0.100	0	-0.050	0.005
GW	267	1	0.200	0	0.050	0.300	0	0.050	0.005
GW	268	1	0.200	0	0.050	0.200	0	-0.050	0.005
GW	269	1	0.300	0	0.050	0.400	0	0.050	0.005
GW	270	1	0.300	0	0.050	0.300	0	-0.050	0.005
GW	271	1	0.400	0	0.050	0.500	0	0.050	0.005
GW	272	1	0.400	0	0.050	0.400	0	-0.050	0.005
GW	273	1	0.500	0	0.050	0.500	0	-0.050	0.005
GW	274	1	-0.500	0	-0.050	-0.400	0	-0.050	0.005
GW	275	1	-0.500	0	-0.050	-0.500	0	-0.150	0.005
GW	276	1	-0.400	0	-0.050	-0.300	0	-0.050	0.005
GW	277	1	-0.400	0	-0.050	-0.400	0	-0.150	0.005
GW	278	1	-0.300	0	-0.050	-0.200	0	-0.050	0.005
GW	279	1	-0.300	0	-0.050	-0.300	0	-0.150	0.005
GW	280	1	-0.200	0	-0.050	-0.100	0	-0.050	0.005
GW	281	1	-0.200	0	-0.050	-0.200	0	-0.150	0.005
GW	282	1	-0.100	0	-0.050	0	0	-0.050	0.005
GW	283	1	-0.100	0	-0.050	-0.100	0	-0.150	0.005
GW	284	1	0	0	-0.050	0.100	0	-0.050	0.005
GW	285	1	0	0	-0.050	0	0	-0.150	0.005
GW	286	1	0.100	0	-0.050	0.200	0	-0.050	0.005
GW	287	1	0.100	0	-0.050	0.100	0	-0.150	0.005
GW	288	1	0.200	0	-0.050	0.300	0	-0.050	0.005
GW	289	1	0.200	0	-0.050	0.200	0	-0.150	0.005
GW	290	1	0.300	0	-0.050	0.400	0	-0.050	0.005
GW	291	1	0.300	0	-0.050	0.300	0	-0.150	0.005
GW	292	1	0.400	0	-0.050	0.500	0	-0.050	0.005
GW	293	1	0.400	0	-0.050	0.400	0	-0.150	0.005
GW	294	1	0.500	0	-0.050	0.500	0	-0.150	0.005
GW	295	1	-0.500	0	-0.150	-0.400	0	-0.150	0.005
GW	296	1	-0.500	0	-0.150	-0.500	0	-0.250	0.005
GW	297	1	-0.400	0	-0.150	-0.300	0	-0.150	0.005
GW	298	1	-0.400	0	-0.150	-0.400	0	-0.250	0.005
GW	299	1	-0.300	0	-0.150	-0.200	0	-0.150	0.005
GW	300	1	-0.300	0	-0.150	-0.300	0	-0.250	0.005
GW	301	1	-0.200	0	-0.150	-0.100	0	-0.150	0.005
GW	302	1	-0.200	0	-0.150	-0.200	0	-0.250	0.005
GW	303	1	-0.100	0	-0.150	0	0	-0.150	0.005
GW	304	1	-0.100	0	-0.150	-0.100	0	-0.250	0.005
GW	305	1	0	0	-0.150	0.100	0	-0.150	0.005
GW	306	1	0	0	-0.150	0	0	-0.250	0.005
GW	307	1	0.100	0	-0.150	0.200	0	-0.150	0.005
GW	308	1	0.100	0	-0.150	0.100	0	-0.250	0.005
GW	309	1	0.200	0	-0.150	0.300	0	-0.150	0.005
GW	310	1	0.200	0	-0.150	0.200	0	-0.250	0.005
GW	311	1	0.300	0	-0.150	0.400	0	-0.150	0.005
GW	312	1	0.300	0	-0.150	0.300	0	-0.250	0.005
GW	313	1	0.400	0	-0.150	0.500	0	-0.150	0.005
GW	314	1	0.400	0	-0.150	0.400	0	-0.250	0.005
GW	315	1	0.500	0	-0.150	0.500	0	-0.250	0.005
GW	316	1	-0.500	0	-0.250	-0.400	0	-0.250	0.005
GW	317	1	-0.500	0	-0.250	-0.500	0	-0.350	0.005
GW	318	1	-0.400	0	-0.250	-0.300	0	-0.250	0.005
GW	319	1	-0.400	0	-0.250	-0.400	0	-0.350	0.005
GW	320	1	-0.300	0	-0.250	-0.200	0	-0.250	0.005
GW	321	1	-0.300	0	-0.250	-0.300	0	-0.350	0.005
GW	322	1	-0.200	0	-0.250	-0.100	0	-0.250	0.005
GW	323	1	-0.200	0	-0.250	-0.200	0	-0.350	0.005
GW	324	1	-0.100	0	-0.250	0	0	-0.250	0.005
GW	325	1	-0.100	0	-0.250	-0.100	0	-0.350	0.005
GW	326	1	0	0	-0.250	0.100	0	-0.250	0.005
GW	327	1	0	0	-0.250	0	0	-0.350	0.005
GW	328	1	0.100	0	-0.250	0.200	0	-0.250	0.005
GW	329	1	0.100	0	-0.250	0.100	0	-0.350	0.005
GW	330	1	0.200	0	-0.250	0.300	0	-0.250	0.005
GW	331	1	0.200	0	-0.250	0.200	0	-0.350	0.005
GW	332	1	0.300	0	-0.250	0.400	0	-0.250	0.005
GW	333	1	0.300	0	-0.250	0.300	0	-0.350	0.005
GW	334	1	0.400	0	-0.250	0.500	0	-0.250	0.005
GW	335	1	0.400	0	-0.250	0.400	0	-0.350	0.005
GW	336	1	0.500	0	-0.250	0.500	0	-0.350	0.005
GW	337	1	-0.500	0	-0.350	-0.400	0	-0.350	0.005
GW	338	1	-0.500	0	-0.350	-0.500	0	-0.450	0.005
GW	339	1	-0.400	0	-0.350	-0.300	0	-0.350	0.005
GW	340	1	-0.400	0	-0.350	-0.400	0	-0.450	0.005
GW	341	1	-0.300	0	-0.350	-0.200	0	-0.350	0.005
GW	342	1	-0.300	0	-0.350	-0.300	0	-0.450	0.005
GW	343	1	-0.200	0	-0.350	-0.100	0	-0.350	0.005
GW	344	1	-0.200	0	-0.350	-0.200	0	-0.450	0.005
GW	345	1	-0.100	0	-0.350	0	0	-0.350	0.005
GW	346	1	-0.100	0	-0.350	-0.100	0	-0.450	0.005
GW	347	1	0	0	-0.350	0.100	0	-0.350	0.005
GW	348	1	0	0	-0.350	0	0	-0.450	0.005
GW	349	1	0.100	0	-0.350	0.200	0	-0.350	0.005
GW	350	1	0.100	0	-0.350	0.100	0	-0.450	0.005
GW	351	1	0.200	0	-0.350	0.300	0	-0.350	0.005
GW	352	1	0.200	0	-0.350	0.200	0	-0.450	0.005
GW	353	1	0.300	0	-0.350	0.400	0	-0.350	0.005
GW	354	1	0.300	0	-0.350	0.300	0	-0.450	0.005
GW	355	1	0.400	0	-0.350	0.500	0	-0.350	0.005
GW	356	1	0.400	0	-0.350	0.400	0	-0.450	0.005
GW	357	1	0.500	0	-0.350	0.500	0	-0.450	0.005
GW	358	1	-0.500	0	-0.450	-0.400	0	-0.450	0.005
GW	359	1	-0.500	0	-0.450	-0.500	0	-0.550	0.005
GW	360	1	-0.400	0	-0.450	-0.300	0	-0.450	0.005
GW	361	1	-0.400	0	-0.450	-0.400	0	-0.550	0.005
GW	362	1	-0.300	0	-0.450	-0.200	0	-0.450	0.005
GW	363	1	-0.300	0	-0.450	-0.300	0	-0.550	0.005
GW	364	1	-0.200	0	-0.450	-0.100	0	-0.450	0.005
GW	365	1	-0.200	0	-0.450	-0.200	0	-0.550	0.005
GW	366	1	-0.100	0	-0.450	0	0	-0.450	0.005
GW	367	1	-0.100	0	-0.450	-0.100	0	-0.550	0.005
GW	368	1	0	0	-0.450	0.100	0	-0.450	0.005
GW	369	1	0	0	-0.450	0	0	-0.550	0.005
GW	370	1	0.100	0	-0.450	0.200	0	-0.450	0.005
GW	371	1	0.100	0	-0.450	0.100	0	-0.550	0.005
GW	372	1	0.200	0	-0.450	0.300	0	-0.450	0.005
GW	373	1	0.200	0	-0.450	0.200	0	-0.550	0.005
GW	374	1	0.300	0	-0.450	0.400	0	-0.450	0.005
GW	375	1	0.300	0	-0.450	0.300	0	-0.550	0.005
GW	376	1	0.400	0	-0.450	0.500	0	-0.450	0.005
GW	377	1	0.400	0	-0.450	0.400	0	-0.550	0.005
GW	378	1	0.500	0	-0.450	0.500	0	-0.550	0.005
GW	379	1	-0.500	0	-0.550	-0.400	0	-0.550	0.005
GW	380	1	-0.500	0	-0.550	-0.500	0	-0.650	0.005
GW	381	1	-0.400	0	-0.550	-0.300	0	-0.550	0.005
GW	382	1	-0.400	0	-0.550	-0.400	0	-0.650	0.005
GW	383	1	-0.300	0	-0.550	-0.200	0	-0.550	0.005
GW	384	1	-0.300	0	-0.550	-0.300	0	-0.650	0.005
GW	385	1	-0.200	0	-0.550	-0.100	0	-0.550	0.005
GW	386	1	-0.200	0	-0.550	-0.200	0	-0.650	0.005
GW	387	1	-0.100	0	-0.550	0	0	-0.550	0.005
GW	388	1	-0.100	0	-0.550	-0.100	0	-0.650	0.005
GW	389	1	0	0	-0.550	0.100	0	-0.550	0.005
GW	390	1	0	0	-0.550	0	0	-0.650	0.005
GW	391	1	0.100	0	-0.550	0.200	0	-0.550	0.005
GW	392	1	0.100	0	-0.550	0.100	0	-0.650	0.005
GW	393	1	0.200	0	-0.550	0.300	0	-0.550	0.005
GW	394	1	0.200	0	-0.550	0.200	0	-0.650	0.005
GW	395	1	0.300	0	-0.550	0.400	0	-0.550	0.005
GW	396	1	0.300	0	-0.550	0.300	0	-0.650	0.005
GW	397	1	0.400	0	-0.550	0.500	0	-0.550	0.005
GW	398	1	0.400	0	-0.550	0.400	0	-0.650	0.005
GW	399	1	0.500	0	-0.550	0.500	0	-0.650	0.005
GW	400	1	-0.500	0	-0.650	-0.400	0	-0.650	0.005
GW	401	1	-0.500	0	-0.650	-0.500	0	-0.750	0.005
GW	402	1	-0.400	0	-0.650	-0.300	0	-0.650	0.005
GW	403	1	-0.400	0	-0.650	-0.400	0	-0.750	0.005
GW	404	1	-0.300	0	-0.650	-0.200	0	-0.650	0.005
GW	405	1	-0.300	0	-0.650	-0.300	0	-0.750	0.005
GW	406	1	-0.200	0	-0.650	-0.100	0	-0.650	0.005
GW	407	1	-0.200	0	-0.650	-0.200	0	-0.750	0.005
GW	408	1	-0.100	0	-0.650	0	0	-0.650	0.005
GW	409	1	-0.100	0	-0.650	-0.100	0	-0.750	0.005
GW	410	1	0	0	-0.650	0.100	0	-0.650	0.005
GW	411	1	0	0	-0.650	0	0	-0.750	0.005
GW	412	1	0.100	0	-0.650	0.200	0	-0.650	0.005
GW	413	1	0.100	0	-0.650	0.100	0	-0.750	0.005
GW	414	1	0.200	0	-0.650	0.300	0	-0.650	0.005
GW	415	1	0.200	0	-0.650	0.200	0	-0.750	0.005
GW	416	1	0.300	0	-0.650	0.400	0	-0.650	0.005
GW	417	1	0.300	0	-0.650	0.300	0	-0.750	0.005
GW	418	1	0.400	0	-0.650	0.500	0	-0.650	0.005
GW	419	1	0.400	0	-0.650	0.400	0	-0.750	0.005
GW	420	1	0.500	0	-0.650	0.500	0	-0.750	0.005
GW	421	1	-0.500	0	-0.750	-0.400	0	-0.750	0.005
GW	422	1	-0.500	0	-0.750	-0.500	0	-0.850	0.005
GW	423	1	-0.400	0	-0.750	-0.300	0	-0.750	0.005
GW	424	1	-0.400	0	-0.750	-0.400	0	-0.850	0.005
GW	425	1	-0.300	0	-0.750	-0.200	0	-0.750	0.005
GW	426	1	-0.300	0	-0.750	-0.300	0	-0.850	0.005
GW	427	1	-0.200	0	-0.750	-0.100	0	-0.750	0.005
GW	428	1	-0.200	0	-0.750	-0.200	0	-0.850	0.005
GW	429	1	-0.100	0	-0.750	0	0	-0.750	0.005
GW	430	1	-0.100	0	-0.750	-0.100	0	-0.850	0.005
GW	431	1	0	0	-0.750	0.100	0	-0.750	0.005
GW	432	1	0	0	-0.750	0	0	-0.850	0.005
GW	433	1	0.100	0	-0.750	0.200	0	-0.750	0.005
GW	434	1	0.100	0	-0.750	0.100	0	-0.850	0.005
GW	435	1	0.200	0	-0.750	0.300	0	-0.750	0.005
GW	436	1	0.200	0	-0.750	0.200	0	-0.850	0.005
GW	437	1	0.300	0	-0.750	0.400	0	-0.750	0.005
GW	438	1	0.300	0	-0.750	0.300	0	-0.850	0.005
GW	439	1	0.400	0	-0.750	0.500	0	-0.750	0.005
GW	440	1	0.400	0	-0.750	0.400	0	-0.850	0.005
GW	441	1	0.500	0	-0.750	0.500	0	-0.850	0.005
GW	442	1	-0.500	0	-0.850	-0.400	0	-0.850	0.005
GW	443	1	-0.500	0	-0.850	-0.500	0	-0.950	0.005
GW	444	1	-0.400	0	-0.850	-0.300	0	-0.850	0.005
GW	445	1	-0.400	0	-0.850	-0.400	0	-0.950	0.005
GW	446	1	-0.300	0	-0.850	-0.200	0	-0.850	0.005
GW	447	1	-0.300	0	-0.850	-0.300	0	-0.950	0.005
GW	448	1	-0.200	0	-0.850	-0.100	0	-0.850	0.005
GW	449	1	-0.200	0	-0.850	-0.200	0	-0.950	0.005
GW	450	1	-0.100	0	-0.850	0	0	-0.850	0.005
GW	451	1	-0.100	0	-0.850	-0.100	0	-0.950	0.005
GW	452	1	0	0	-0.850	0.100	0	-0.850	0.005
GW	453	1	0	0	-0.850	0	0	-0.950	0.005
GW	454	1	0.100	0	-0.850	0.200	0	-0.850	0.005
GW	455	1	0.100	0	-0.850	0.100	0	-0.950	0.005
GW	456	1	0.200	0	-0.850	0.300	0	-0.850	0.005
GW	457	1	0.200	0	-0.850	0.200	0	-0.950	0.005
GW	458	1	0.300	0	-0.850	0.400	0	-0.850	0.005
GW	459	1	0.300	0	-0.850	0.300	0	-0.950	0.005
GW	460	1	0.400	0	-0.850	0.500	0	-0.850	0.005
GW	461	1	0.400	0	-0.850	0.400	0	-0.950	0.005
GW	462	1	0.500	0	-0.850	0.500	0	-0.950	0.005
GW	463	1	-0.500	0	-0.950	-0.400	0	-0.950	0.005
GW	464	1	-0.500	0	-0.950	-0.500	0	-1.050	0.005
GW	465	1	-0.400	0	-0.950	-0.300	0	-0.950	0.005
GW	466	1	-0.400	0	-0.950	-0.400	0	-1.050	0.005
GW	467	1	-0.300	0	-0.950	-0.200	0	-0.950	0.005
GW	468	1	-0.300	0	-0.950	-0.300	0	-1.050	0.005
GW	469	1	-0.200	0	-0.950	-0.100	0	-0.950	0.005
GW	470	1	-0.200	0	-0.950	-0.200	0	-1.050	0.005
GW	471	1	-0.100	0	-0.950	0	0	-0.950	0.005
GW	472	1	-0.100	0	-0.950	-0.100	0	-1.050	0.005
GW	473	1	0	0	-0.950	0.100	0	-0.950	0.005
GW	474	1	0	0	-0.950	0	0	-1.050	0.005
GW	475	1	0.100	0	-0.950	0.200	0	-0.950	0.005
GW	476	1	0.100	0	-0.950	0.100	0	-1.050	0.005
GW	477	1	0.200	0	-0.950	0.300	0	-0.950	0.005
GW	478	1	0.200	0	-0.950	0.200	0	-1.050	0.005
GW	479	1	0.300	0	-0.950	0.400	0	-0.950	0.005
GW	480	1	0.300	0	-0.950	0.300	0	-1.050	0.005
GW	481	1	0.400	0	-0.950	0.500	0	-0.950	0.005
GW	482	1	0.400	0	-0.950	0.400	0	-1.050	0.005
GW	483	1	0.500	0	-0.950	0.500	0	-1.050	0.005
GW	484	1	-0.500	0	-1.050	-0.400	0	-1.050	0.005
GW	485	1	-0.500	0	-1.050	-0.500	0	-1.150	0.005
GW	486	1	-0.400	0	-1.050	-0.300	0	-1.050	0.005
GW	487	1	-0.400	0	-1.050	-0.400	0	-1.150	0.005
GW	488	1	-0.300	0	-1.050	-0.200	0	-1.050	0.005
GW	489	1	-0.300	0	-1.050	-0.300	0	-1.150	0.005
GW	490	1	-0.200	0	-1.050	-0.100	0	-1.050	0.005
GW	491	1	-0.200	0	-1.050	-0.200	0	-1.150	0.005
GW	492	1	-0.100	0	-1.050	0	0	-1.050	0.005
GW	493	1	-0.100	0	-1.050	-0.100	0	-1.150	0.005
GW	494	1	0	0	-1.050	0.100	0	-1.050	0.005
GW	495	1	0	0	-1.050	0	0	-1.150	0.005
GW	496	1	0.100	0	-1.050	0.200	0	-1.050	0.005
GW	497	1	0.100	0	-1.050	0.100	0	-1.150	0.005
GW	498	1	0.200	0	-1.050	0.300	0	-1.050	0.005
GW	499	1	0.200	0	-1.050	0.200	0	-1.150	0.005
GW	500	1	0.300	0	-1.050	0.400	0	-1.050	0.005
GW	501	1	0.300	0	-1.050	0.300	0	-1.150	0.005
GW	502	1	0.400	0	-1.050	0.500	0	-1.050	0.005
GW	503	1	0.400	0	-1.050	0.400	0	-1.150	0.005
GW	504	1	0.500	0	-1.050	0.500	0	-1.150	0.005
GW	505	1	-0.500	0	-1.150	-0.400	0	-1.150	0.005
GW	506	1	-0.500	0	-1.150	-0.500	0	-1.250	0.005
GW	507	1	-0.400	0	-1.150	-0.300	0	-1.150	0.005
GW	508	1	-0.400	0	-1.150	-0.400	0	-1.250	0.005
GW	509	1	-0.300	0	-1.150	-0.200	0	-1.150	0.005
GW	510	1	-0.300	0	-1.150	-0.300	0	-1.250	0.005
GW	511	1	-0.200	0	-1.150	-0.100	0	-1.150	0.005
GW	512	1	-0.200	0	-1.150	-0.200	0	-1.250	0.005
GW	513	1	-0.100	0	-1.150	0	0	-1.150	0.005
GW	514	1	-0.100	0	-1.150	-0.100	0	-1.250	0.005
GW	515	1	0	0	-1.150	0.100	0	-1.150	0.005
GW	516	1	0	0	-1.150	0	0	-1.250	0.005
GW	517	1	0.100	0	-1.150	0.200	0	-1.150	0.005
GW	518	1	0.100	0	-1.150	0.100	0	-1.250	0.005
GW	519	1	0.200	0	-1.150	0.300	0	-1.150	0.005
GW	520	1	0.200	0	-1.150	0.200	0	-1.250	0.005
GW	521	1	0.300	0	-1.150	0.400	0	-1.150	0.005
GW	522	1	0.300	0	-1.150	0.300	0	-1.250	0.005
GW	523	1	0.400	0	-1.150	0.500	0	-1.150	0.005
GW	524	1	0.400	0	-1.150	0.400	0	-1.250	0.005
GW	525	1	0.500	0	-1.150	0.500	0	-1.250	0.005
GW	526	1	-0.500	0	-1.250	-0.400	0	-1.250	0.005
GW	527	1	-0.400	0	-1.250	-0.300	0	-1.250	0.005
GW	528	1	-0.300	0	-1.250	-0.200	0	-1.250	0.005
GW	529	1	-0.200	0	-1.250	-0.100	0	-1.250	0.005
GW	530	1	-0.100	0	-1.250	0	0	-1.250	0.005
GW	531	1	0	0	-1.250	0.100	0	-1.250	0.005
GW	532	1	0.100	0	-1.250	0.200	0	-1.250	0.005
GW	533	1	0.200	0	-1.250	0.300	0	-1.250	0.005
GW	534	1	0.300	0	-1.250	0.400	0	-1.250	0.005
GW	535	1	0.400	0	-1.250	0.500	0	-1.250	0.005
GW	536	3	0.020000	0.250000	-0.750000	0.250970	0.250000	-0.654329	0.005000
GW	537	3	-0.250970	0.250000	-0.845671	-0.020000	0.250000	-0.750000	0.005000
GW	538	3	-0.250970	0.250000	-0.654329	-0.020000	0.250000	-0.750000	0.005000
GW	539	3	0.020000	0.250000	-0.750000	0.250970	0.250000	-0.845671	0.005000
GW	540	3	0.020000	0.250000	-0.250000	0.250970	0.250000	-0.154329	0.005000
GW	541	3	-0.250970	0.250000	-0.345671	-0.020000	0.250000	-0.250000	0.005000
GW	542	3	-0.250970	0.250000	-0.154329	-0.020000	0.250000	-0.250000	0.005000
GW	543	3	0.020000	0.250000	-0.250000	0.250970	0.250000	-0.345671	0.005000
GW	544	3	0.020000	0.250000	0.250000	0.250970	0.250000	0.345671	0.005000
GW	545	3	-0.250970	0.250000	0.154329	-0.020000	0.250000	0.250000	0.005000
GW	546	3	-0.250970	0.250000	0.345671	-0.020000	0.250000	0.250000	0.005000
GW	547	3	0.020000	0.250000	0.250000	0.250970	0.250000	0.154329	0.005000
GW	548	3	0.020000	0.250000	0.750000	0.250970	0.250000	0.845671	0.005000
GW	549	3	-0.250970	0.250000	0.654329	-0.020000	0.250000	0.750000	0.005000
GW	550	3	-0.250970	0.250000	0.845671	-0.020000	0.250000	0.750000	0.005000
GW	551	3	0.020000	0.250000	0.750000	0.250970	0.250000	0.654329	0.005000
GW	552	1	-0.02	0.25	0	0.02	0.25	0	0.005
GW	553	1	-0.02	0.25	0.25	0.02	0.25	0.25	0.005
GW	554	1	-0.02	0.25	0.75	0.02	0.25	0.75	0.005
GW	555	1	-0.02	0.25	-0.25	0.02	0.25	-0.25	0.005
GW	556	1	-0.02	0.25	-0.75	0.02	0.25	-0.75	0.005
GE	0
GN	-1
EK
EX	0	552	1	0	1	0	0


TL	552	1	553	1	150	0	0	0	0	0
TL	552	1	555	1	150	0	0	0	0	0
TL	553	1	554	1	150	0	0	0	0	0
TL	555	1	556	1	150	0	0	0	0	0
FR	0	0	0	0	300	0
EN
