CM Diskokwniki keraia
CE
GW 1 6 0.000000 0.000000 0.000000 0.300000 0.000000 0.000000 0.005000
GW 2 6 0.000000 0.000000 0.000000 0.212132 0.212132 0.000000 0.005000
GW 3 6 0.000000 0.000000 0.000000 0.000000 0.300000 0.000000 0.005000
GW 4 6 0.000000 0.000000 0.000000 -0.212132 0.212132 0.000000 0.005000
GW 5 6 0.000000 0.000000 0.000000 -0.300000 0.000000 0.000000 0.005000
GW 6 6 0.000000 0.000000 0.000000 -0.212132 -0.212132 0.000000 0.005000
GW 7 6 0.000000 0.000000 0.000000 -0.000000 -0.300000 0.000000 0.005000
GW 8 6 0.000000 0.000000 0.000000 0.212132 -0.212132 0.000000 0.005000
GW 9 1 0.000000 0.000000 0.000000 0.000000 0.000000 -0.050000 0.005000
GW 10 10 0.000000 0.000000 -0.050000 0.353553 0.000000 -0.403553 0.005000
GW 11 10 0.000000 0.000000 -0.050000 0.250000 0.250000 -0.403553 0.005000
GW 12 10 0.000000 0.000000 -0.050000 0.000000 0.353553 -0.403553 0.005000
GW 13 10 0.000000 0.000000 -0.050000 -0.250000 0.250000 -0.403553 0.005000
GW 14 10 0.000000 0.000000 -0.050000 -0.353553 0.000000 -0.403553 0.005000
GW 15 10 0.000000 0.000000 -0.050000 -0.250000 -0.250000 -0.403553 0.005000
GW 16 10 0.000000 0.000000 -0.050000 -0.000000 -0.353553 -0.403553 0.005000
GW 17 10 0.000000 0.000000 -0.050000 0.250000 -0.250000 -0.403553 0.005000
GE 0
GN -1
EK
EX 0 9 1 0 1 0 0
FR 0 0 0 0 300 0
EN
