CM Start angle A1 = 0
CM Stop angle A2 = 360
CM Radial sections = 12
CM Circular sections = 5
CM Rotate X, Y, Z = 0, 0, 0
CM Move X, Y, Z = 0, 0, 0
CE
GW	1	2	0	0	0	.06	0	0	.001573
GW	2	2	.06	0	0	.12	0	0	.003519
GW	3	2	.12	0	0	.18	0	0	.004676
GW	4	2	.18	0	0	.24	0	0	.005442
GW	5	2	.24	0	0	.3	0	0	.005988
GW	6	2	0	0	0	.051962	.03	0	.001573
GW	7	2	.051962	.03	0	.103923	.06	0	.003519
GW	8	2	.103923	.06	0	.155885	.09	0	.004676
GW	9	2	.155885	.09	0	.207846	.12	0	.005442
GW	10	2	.207846	.12	0	.259808	.15	0	.005988
GW	11	2	0	0	0	.03	.051962	0	.001573
GW	12	2	.03	.051962	0	.06	.103923	0	.003519
GW	13	2	.06	.103923	0	.09	.155885	0	.004676
GW	14	2	.09	.155885	0	.12	.207846	0	.005442
GW	15	2	.12	.207846	0	.15	.259808	0	.005988
GW	16	2	0	0	0	0	.06	0	.001573
GW	17	2	0	.06	0	0	.12	0	.003519
GW	18	2	0	.12	0	0	.18	0	.004676
GW	19	2	0	.18	0	0	.24	0	.005442
GW	20	2	0	.24	0	0	.3	0	.005988
GW	21	2	0	0	0	-.03	.051962	0	.001573
GW	22	2	-.03	.051962	0	-.06	.103923	0	.003519
GW	23	2	-.06	.103923	0	-.09	.155885	0	.004676
GW	24	2	-.09	.155885	0	-.12	.207846	0	.005442
GW	25	2	-.12	.207846	0	-.15	.259808	0	.005988
GW	26	2	0	0	0	-.051962	.03	0	.001573
GW	27	2	-.051962	.03	0	-.103923	.06	0	.003519
GW	28	2	-.103923	.06	0	-.155885	.09	0	.004676
GW	29	2	-.155885	.09	0	-.207846	.12	0	.005442
GW	30	2	-.207846	.12	0	-.259808	.15	0	.005988
GW	31	2	0	0	0	-.06	0	0	.001573
GW	32	2	-.06	0	0	-.12	0	0	.003519
GW	33	2	-.12	0	0	-.18	0	0	.004676
GW	34	2	-.18	0	0	-.24	0	0	.005442
GW	35	2	-.24	0	0	-.3	0	0	.005988
GW	36	2	0	0	0	-.051962	-.03	0	.001573
GW	37	2	-.051962	-.03	0	-.103923	-.06	0	.003519
GW	38	2	-.103923	-.06	0	-.155885	-.09	0	.004676
GW	39	2	-.155885	-.09	0	-.207846	-.12	0	.005442
GW	40	2	-.207846	-.12	0	-.259808	-.15	0	.005988
GW	41	2	0	0	0	-.03	-.051962	0	.001573
GW	42	2	-.03	-.051962	0	-.06	-.103923	0	.003519
GW	43	2	-.06	-.103923	0	-.09	-.155885	0	.004676
GW	44	2	-.09	-.155885	0	-.12	-.207846	0	.005442
GW	45	2	-.12	-.207846	0	-.15	-.259808	0	.005988
GW	46	2	0	0	0	0	-.06	0	.001573
GW	47	2	0	-.06	0	0	-.12	0	.003519
GW	48	2	0	-.12	0	0	-.18	0	.004676
GW	49	2	0	-.18	0	0	-.24	0	.005442
GW	50	2	0	-.24	0	0	-.3	0	.005988
GW	51	2	0	0	0	.03	-.051962	0	.001573
GW	52	2	.03	-.051962	0	.06	-.103923	0	.003519
GW	53	2	.06	-.103923	0	.09	-.155885	0	.004676
GW	54	2	.09	-.155885	0	.12	-.207846	0	.005442
GW	55	2	.12	-.207846	0	.15	-.259808	0	.005988
GW	56	2	0	0	0	.051962	-.03	0	.001573
GW	57	2	.051962	-.03	0	.103923	-.06	0	.003519
GW	58	2	.103923	-.06	0	.155885	-.09	0	.004676
GW	59	2	.155885	-.09	0	.207846	-.12	0	.005442
GW	60	2	.207846	-.12	0	.259808	-.15	0	.005988
GW	61	1	.06	0	0	.051962	.03	0	.001573
GW	62	1	.051962	.03	0	.03	.051962	0	.001573
GW	63	1	.03	.051962	0	0	.06	0	.001573
GW	64	1	0	.06	0	-.03	.051962	0	.001573
GW	65	1	-.03	.051962	0	-.051962	.03	0	.001573
GW	66	1	-.051962	.03	0	-.06	0	0	.001573
GW	67	1	-.06	0	0	-.051962	-.03	0	.001573
GW	68	1	-.051962	-.03	0	-.03	-.051962	0	.001573
GW	69	1	-.03	-.051962	0	0	-.06	0	.001573
GW	70	1	0	-.06	0	.03	-.051962	0	.001573
GW	71	1	.03	-.051962	0	.051962	-.03	0	.001573
GW	72	1	.051962	-.03	0	.06	0	0	.001573
GW	73	2	.12	0	0	.103923	.06	0	.003519
GW	74	2	.103923	.06	0	.06	.103923	0	.003519
GW	75	2	.06	.103923	0	0	.12	0	.003519
GW	76	2	0	.12	0	-.06	.103923	0	.003519
GW	77	2	-.06	.103923	0	-.103923	.06	0	.003519
GW	78	2	-.103923	.06	0	-.12	0	0	.003519
GW	79	2	-.12	0	0	-.103923	-.06	0	.003519
GW	80	2	-.103923	-.06	0	-.06	-.103923	0	.003519
GW	81	2	-.06	-.103923	0	0	-.12	0	.003519
GW	82	2	0	-.12	0	.06	-.103923	0	.003519
GW	83	2	.06	-.103923	0	.103923	-.06	0	.003519
GW	84	2	.103923	-.06	0	.12	0	0	.003519
GW	85	3	.18	0	0	.155885	.09	0	.004676
GW	86	3	.155885	.09	0	.09	.155885	0	.004676
GW	87	3	.09	.155885	0	0	.18	0	.004676
GW	88	3	0	.18	0	-.09	.155885	0	.004676
GW	89	3	-.09	.155885	0	-.155885	.09	0	.004676
GW	90	3	-.155885	.09	0	-.18	0	0	.004676
GW	91	3	-.18	0	0	-.155885	-.09	0	.004676
GW	92	3	-.155885	-.09	0	-.09	-.155885	0	.004676
GW	93	3	-.09	-.155885	0	0	-.18	0	.004676
GW	94	3	0	-.18	0	.09	-.155885	0	.004676
GW	95	3	.09	-.155885	0	.155885	-.09	0	.004676
GW	96	3	.155885	-.09	0	.18	0	0	.004676
GW	97	4	.24	0	0	.207846	.12	0	.005442
GW	98	4	.207846	.12	0	.12	.207846	0	.005442
GW	99	4	.12	.207846	0	0	.24	0	.005442
GW	100	4	0	.24	0	-.12	.207846	0	.005442
GW	101	4	-.12	.207846	0	-.207846	.12	0	.005442
GW	102	4	-.207846	.12	0	-.24	0	0	.005442
GW	103	4	-.24	0	0	-.207846	-.12	0	.005442
GW	104	4	-.207846	-.12	0	-.12	-.207846	0	.005442
GW	105	4	-.12	-.207846	0	0	-.24	0	.005442
GW	106	4	0	-.24	0	.12	-.207846	0	.005442
GW	107	4	.12	-.207846	0	.207846	-.12	0	.005442
GW	108	4	.207846	-.12	0	.24	0	0	.005442
GW	109	5	.3	0	0	.259808	.15	0	.005988
GW	110	5	.259808	.15	0	.15	.259808	0	.005988
GW	111	5	.15	.259808	0	0	.3	0	.005988
GW	112	5	0	.3	0	-.15	.259808	0	.005988
GW	113	5	-.15	.259808	0	-.259808	.15	0	.005988
GW	114	5	-.259808	.15	0	-.3	0	0	.005988
GW	115	5	-.3	0	0	-.259808	-.15	0	.005988
GW	116	5	-.259808	-.15	0	-.15	-.259808	0	.005988
GW	117	5	-.15	-.259808	0	0	-.3	0	.005988
GW	118	5	0	-.3	0	.15	-.259808	0	.005988
GW	119	5	.15	-.259808	0	.259808	-.15	0	.005988
GW	120	5	.259808	-.15	0	.3	0	0	.005988
GW	121	3	0	0	.015	.0954	0	.015	.003
GW	122	1	.0954	0	.015	.088138	.036508	.024375	.003
GW	123	1	.088138	.036508	.024375	.067458	.067458	.03375	.003
GW	124	1	.067458	.067458	.03375	.036508	.088138	.043125	.003
GW	125	1	.036508	.088138	.043125	0	.0954	.0525	.003
GW	126	1	0	.0954	.0525	-.036508	.088138	.061875	.003
GW	127	1	-.036508	.088138	.061875	-.067458	.067458	.07125	.003
GW	128	1	-.067458	.067458	.07125	-.088138	.036508	.080625	.003
GW	129	1	-.088138	.036508	.080625	-.0954	0	.09	.003
GW	130	1	-.0954	0	.09	-.088138	-.036508	.099375	.003
GW	131	1	-.088138	-.036508	.099375	-.067458	-.067458	.10875	.003
GW	132	1	-.067458	-.067458	.10875	-.036508	-.088138	.118125	.003
GW	133	1	-.036508	-.088138	.118125	0	-.0954	.1275	.003
GW	134	1	0	-.0954	.1275	.036508	-.088138	.136875	.003
GW	135	1	.036508	-.088138	.136875	.067458	-.067458	.14625	.003
GW	136	1	.067458	-.067458	.14625	.088138	-.036508	.155625	.003
GW	137	1	.088138	-.036508	.155625	.0954	0	.165	.003
GW	138	1	.0954	0	.165	.088138	.036508	.174375	.003
GW	139	1	.088138	.036508	.174375	.067458	.067458	.18375	.003
GW	140	1	.067458	.067458	.18375	.036508	.088138	.193125	.003
GW	141	1	.036508	.088138	.193125	0	.0954	.2025	.003
GW	142	1	0	.0954	.2025	-.036508	.088138	.211875	.003
GW	143	1	-.036508	.088138	.211875	-.067458	.067458	.22125	.003
GW	144	1	-.067458	.067458	.22125	-.088138	.036508	.230625	.003
GW	145	1	-.088138	.036508	.230625	-.0954	0	.24	.003
GW	146	1	-.0954	0	.24	-.088138	-.036508	.249375	.003
GW	147	1	-.088138	-.036508	.249375	-.067458	-.067458	.25875	.003
GW	148	1	-.067458	-.067458	.25875	-.036508	-.088138	.268125	.003
GW	149	1	-.036508	-.088138	.268125	0	-.0954	.2775	.003
GW	150	1	0	-.0954	.2775	.036508	-.088138	.286875	.003
GW	151	1	.036508	-.088138	.286875	.067458	-.067458	.29625	.003
GW	152	1	.067458	-.067458	.29625	.088138	-.036508	.305625	.003
GW	153	1	.088138	-.036508	.305625	.0954	0	.315	.003
GW	154	1	.0954	0	.315	.088138	.036508	.324375	.003
GW	155	1	.088138	.036508	.324375	.067458	.067458	.33375	.003
GW	156	1	.067458	.067458	.33375	.036508	.088138	.343125	.003
GW	157	1	.036508	.088138	.343125	0	.0954	.3525	.003
GW	158	1	0	.0954	.3525	-.036508	.088138	.361875	.003
GW	159	1	-.036508	.088138	.361875	-.067458	.067458	.37125	.003
GW	160	1	-.067458	.067458	.37125	-.088138	.036508	.380625	.003
GW	161	1	-.088138	.036508	.380625	-.0954	0	.39	.003
GW	162	1	-.0954	0	.39	-.088138	-.036508	.399375	.003
GW	163	1	-.088138	-.036508	.399375	-.067458	-.067458	.40875	.003
GW	164	1	-.067458	-.067458	.40875	-.036508	-.088138	.418125	.003
GW	165	1	-.036508	-.088138	.418125	0	-.0954	.4275	.003
GW	166	1	0	-.0954	.4275	.036508	-.088138	.436875	.003
GW	167	1	.036508	-.088138	.436875	.067458	-.067458	.44625	.003
GW	168	1	.067458	-.067458	.44625	.088138	-.036508	.455625	.003
GW	169	1	.088138	-.036508	.455625	.0954	0	.465	.003
GW	170	1	.0954	0	.465	.088138	.036508	.474375	.003
GW	171	1	.088138	.036508	.474375	.067458	.067458	.48375	.003
GW	172	1	.067458	.067458	.48375	.036508	.088138	.493125	.003
GW	173	1	.036508	.088138	.493125	0	.0954	.5025	.003
GW	174	1	0	.0954	.5025	-.036508	.088138	.511875	.003
GW	175	1	-.036508	.088138	.511875	-.067458	.067458	.52125	.003
GW	176	1	-.067458	.067458	.52125	-.088138	.036508	.530625	.003
GW	177	1	-.088138	.036508	.530625	-.0954	0	.54	.003
GW	178	1	-.0954	0	.54	-.088138	-.036508	.549375	.003
GW	179	1	-.088138	-.036508	.549375	-.067458	-.067458	.55875	.003
GW	180	1	-.067458	-.067458	.55875	-.036508	-.088138	.568125	.003
GW	181	1	-.036508	-.088138	.568125	0	-.0954	.5775	.003
GW	182	1	0	-.0954	.5775	.036508	-.088138	.586875	.003
GW	183	1	.036508	-.088138	.586875	.067458	-.067458	.59625	.003
GW	184	1	.067458	-.067458	.59625	.088138	-.036508	.605625	.003
GW	185	1	.088138	-.036508	.605625	.0954	0	.615	.003
GW	186	1	.0954	0	.615	.088138	.036508	.624375	.003
GW	187	1	.088138	.036508	.624375	.067458	.067458	.63375	.003
GW	188	1	.067458	.067458	.63375	.036508	.088138	.643125	.003
GW	189	1	.036508	.088138	.643125	0	.0954	.6525	.003
GW	190	1	0	.0954	.6525	-.036508	.088138	.661875	.003
GW	191	1	-.036508	.088138	.661875	-.067458	.067458	.67125	.003
GW	192	1	-.067458	.067458	.67125	-.088138	.036508	.680625	.003
GW	193	1	-.088138	.036508	.680625	-.0954	0	.69	.003
GW	194	1	-.0954	0	.69	-.088138	-.036508	.699375	.003
GW	195	1	-.088138	-.036508	.699375	-.067458	-.067458	.70875	.003
GW	196	1	-.067458	-.067458	.70875	-.036508	-.088138	.718125	.003
GW	197	1	-.036508	-.088138	.718125	0	-.0954	.7275	.003
GW	198	1	0	-.0954	.7275	.036508	-.088138	.736875	.003
GW	199	1	.036508	-.088138	.736875	.067458	-.067458	.74625	.003
GW	200	1	.067458	-.067458	.74625	.088138	-.036508	.755625	.003
GW	201	1	.088138	-.036508	.755625	.0954	0	.765	.003
GW	202	1	.0954	0	.765	.088138	.036508	.774375	.003
GW	203	1	.088138	.036508	.774375	.067458	.067458	.78375	.003
GW	204	1	.067458	.067458	.78375	.036508	.088138	.793125	.003
GW	205	1	.036508	.088138	.793125	0	.0954	.8025	.003
GW	206	1	0	.0954	.8025	-.036508	.088138	.811875	.003
GW	207	1	-.036508	.088138	.811875	-.067458	.067458	.82125	.003
GW	208	1	-.067458	.067458	.82125	-.088138	.036508	.830625	.003
GW	209	1	-.088138	.036508	.830625	-.0954	0	.84	.003
GW	210	1	-.0954	0	.84	-.088138	-.036508	.849375	.003
GW	211	1	-.088138	-.036508	.849375	-.067458	-.067458	.85875	.003
GW	212	1	-.067458	-.067458	.85875	-.036508	-.088138	.868125	.003
GW	213	1	-.036508	-.088138	.868125	0	-.0954	.8775	.003
GW	214	1	0	-.0954	.8775	.036508	-.088138	.886875	.003
GW	215	1	.036508	-.088138	.886875	.067458	-.067458	.89625	.003
GW	216	1	.067458	-.067458	.89625	.088138	-.036508	.905625	.003
GW	217	1	.088138	-.036508	.905625	.0954	0	.915	.003
GW	218	1	.0954	0	.915	.088138	.036508	.924375	.003
GW	219	1	.088138	.036508	.924375	.067458	.067458	.93375	.003
GW	220	1	.067458	.067458	.93375	.036508	.088138	.943125	.003
GW	221	1	.036508	.088138	.943125	0	.0954	.9525	.003
GW	222	1	0	.0954	.9525	-.036508	.088138	.961875	.003
GW	223	1	-.036508	.088138	.961875	-.067458	.067458	.97125	.003
GW	224	1	-.067458	.067458	.97125	-.088138	.036508	.980625	.003
GW	225	1	-.088138	.036508	.980625	-.0954	0	.99	.003
GW	226	1	-.0954	0	.99	-.088138	-.036508	.999375	.003
GW	227	1	-.088138	-.036508	.999375	-.067458	-.067458	1.009	.003
GW	228	1	-.067458	-.067458	1.009	-.036508	-.088138	1.018	.003
GW	229	1	-.036508	-.088138	1.018	0	-.0954	1.028	.003
GW	230	1	0	-.0954	1.028	.036508	-.088138	1.037	.003
GW	231	1	.036508	-.088138	1.037	.067458	-.067458	1.046	.003
GW	232	1	.067458	-.067458	1.046	.088138	-.036508	1.056	.003
GW	233	1	.088138	-.036508	1.056	.0954	0	1.065	.003
GW	234	1	.0954	0	1.065	.088138	.036508	1.074	.003
GW	235	1	.088138	.036508	1.074	.067458	.067458	1.084	.003
GW	236	1	.067458	.067458	1.084	.036508	.088138	1.093	.003
GW	237	1	.036508	.088138	1.093	0	.0954	1.103	.003
GW	238	1	0	.0954	1.103	-.036508	.088138	1.112	.003
GW	239	1	-.036508	.088138	1.112	-.067458	.067458	1.121	.003
GW	240	1	-.067458	.067458	1.121	-.088138	.036508	1.131	.003
GW	241	1	-.088138	.036508	1.131	-.0954	0	1.14	.003
GW	242	1	-.0954	0	1.14	-.088138	-.036508	1.149	.003
GW	243	1	-.088138	-.036508	1.149	-.067458	-.067458	1.159	.003
GW	244	1	-.067458	-.067458	1.159	-.036508	-.088138	1.168	.003
GW	245	1	-.036508	-.088138	1.168	0	-.0954	1.178	.003
GW	246	1	0	-.0954	1.178	.036508	-.088138	1.187	.003
GW	247	1	.036508	-.088138	1.187	.067458	-.067458	1.196	.003
GW	248	1	.067458	-.067458	1.196	.088138	-.036508	1.206	.003
GW	249	1	.088138	-.036508	1.206	.0954	0	1.215	.003
GW	250	1	.0954	0	1.215	.088138	.036508	1.224	.003
GW	251	1	.088138	.036508	1.224	.067458	.067458	1.234	.003
GW	252	1	.067458	.067458	1.234	.036508	.088138	1.243	.003
GW	253	1	.036508	.088138	1.243	0	.0954	1.253	.003
GW	254	1	0	.0954	1.253	-.036508	.088138	1.262	.003
GW	255	1	-.036508	.088138	1.262	-.067458	.067458	1.271	.003
GW	256	1	-.067458	.067458	1.271	-.088138	.036508	1.281	.003
GW	257	1	-.088138	.036508	1.281	-.0954	0	1.29	.003
GW	258	1	-.0954	0	1.29	-.088138	-.036508	1.299	.003
GW	259	1	-.088138	-.036508	1.299	-.067458	-.067458	1.309	.003
GW	260	1	-.067458	-.067458	1.309	-.036508	-.088138	1.318	.003
GW	261	1	-.036508	-.088138	1.318	0	-.0954	1.328	.003
GW	262	1	0	-.0954	1.328	.036508	-.088138	1.337	.003
GW	263	1	.036508	-.088138	1.337	.067458	-.067458	1.346	.003
GW	264	1	.067458	-.067458	1.346	.088138	-.036508	1.356	.003
GW	265	1	.088138	-.036508	1.356	.0954	0	1.365	.003
GW	266	1	.0954	0	1.365	.088138	.036508	1.374	.003
GW	267	1	.088138	.036508	1.374	.067458	.067458	1.384	.003
GW	268	1	.067458	.067458	1.384	.036508	.088138	1.393	.003
GW	269	1	.036508	.088138	1.393	0	.0954	1.403	.003
GW	270	1	0	.0954	1.403	-.036508	.088138	1.412	.003
GW	271	1	-.036508	.088138	1.412	-.067458	.067458	1.421	.003
GW	272	1	-.067458	.067458	1.421	-.088138	.036508	1.431	.003
GW	273	1	-.088138	.036508	1.431	-.0954	0	1.44	.003
GW	274	1	-.0954	0	1.44	-.088138	-.036508	1.449	.003
GW	275	1	-.088138	-.036508	1.449	-.067458	-.067458	1.459	.003
GW	276	1	-.067458	-.067458	1.459	-.036508	-.088138	1.468	.003
GW	277	1	-.036508	-.088138	1.468	0	-.0954	1.478	.003
GW	278	1	0	-.0954	1.478	.036508	-.088138	1.487	.003
GW	279	1	.036508	-.088138	1.487	.067458	-.067458	1.496	.003
GW	280	1	.067458	-.067458	1.496	.088138	-.036508	1.506	.003
GW	281	1	.088138	-.036508	1.506	.0954	0	1.515	.003
GW	282	1	.0954	0	1.515	.088138	.036508	1.524	.003
GW	283	1	.088138	.036508	1.524	.067458	.067458	1.534	.003
GW	284	1	.067458	.067458	1.534	.036508	.088138	1.543	.003
GW	285	1	.036508	.088138	1.543	0	.0954	1.553	.003
GW	286	1	0	.0954	1.553	-.036508	.088138	1.562	.003
GW	287	1	-.036508	.088138	1.562	-.067458	.067458	1.571	.003
GW	288	1	-.067458	.067458	1.571	-.088138	.036508	1.581	.003
GW	289	1	-.088138	.036508	1.581	-.0954	0	1.59	.003
GW	290	1	-.0954	0	1.59	-.088138	-.036508	1.599	.003
GW	291	1	-.088138	-.036508	1.599	-.067458	-.067458	1.609	.003
GW	292	1	-.067458	-.067458	1.609	-.036508	-.088138	1.618	.003
GW	293	1	-.036508	-.088138	1.618	0	-.0954	1.628	.003
GW	294	1	0	-.0954	1.628	.036508	-.088138	1.637	.003
GW	295	1	.036508	-.088138	1.637	.067458	-.067458	1.646	.003
GW	296	1	.067458	-.067458	1.646	.088138	-.036508	1.656	.003
GW	297	1	.088138	-.036508	1.656	.0954	0	1.665	.003
GW	298	1	.0954	0	1.665	.088138	.036508	1.674	.003
GW	299	1	.088138	.036508	1.674	.067458	.067458	1.684	.003
GW	300	1	.067458	.067458	1.684	.036508	.088138	1.693	.003
GW	301	1	.036508	.088138	1.693	0	.0954	1.703	.003
GW	302	1	0	.0954	1.703	-.036508	.088138	1.712	.003
GW	303	1	-.036508	.088138	1.712	-.067458	.067458	1.721	.003
GW	304	1	-.067458	.067458	1.721	-.088138	.036508	1.731	.003
GW	305	1	-.088138	.036508	1.731	-.0954	0	1.74	.003
GW	306	1	-.0954	0	1.74	-.088138	-.036508	1.749	.003
GW	307	1	-.088138	-.036508	1.749	-.067458	-.067458	1.759	.003
GW	308	1	-.067458	-.067458	1.759	-.036508	-.088138	1.768	.003
GW	309	1	-.036508	-.088138	1.768	0	-.0954	1.778	.003
GW	310	1	0	-.0954	1.778	.036508	-.088138	1.787	.003
GW	311	1	.036508	-.088138	1.787	.067458	-.067458	1.796	.003
GW	312	1	.067458	-.067458	1.796	.088138	-.036508	1.806	.003
GW	313	1	.088138	-.036508	1.806	.0954	0	1.815	.003
GW	314	1	.0954	0	1.815	.088138	.036508	1.824	.003
GW	315	1	.088138	.036508	1.824	.067458	.067458	1.834	.003
GW	316	1	.067458	.067458	1.834	.036508	.088138	1.843	.003
GW	317	1	.036508	.088138	1.843	0	.0954	1.853	.003
GW	318	1	0	.0954	1.853	-.036508	.088138	1.862	.003
GW	319	1	-.036508	.088138	1.862	-.067458	.067458	1.871	.003
GW	320	1	-.067458	.067458	1.871	-.088138	.036508	1.881	.003
GW	321	1	-.088138	.036508	1.881	-.0954	0	1.89	.003
GW	322	1	-.0954	0	1.89	-.088138	-.036508	1.899	.003
GW	323	1	-.088138	-.036508	1.899	-.067458	-.067458	1.909	.003
GW	324	1	-.067458	-.067458	1.909	-.036508	-.088138	1.918	.003
GW	325	1	-.036508	-.088138	1.918	0	-.0954	1.928	.003
GW	326	1	0	-.0954	1.928	.036508	-.088138	1.937	.003
GW	327	1	.036508	-.088138	1.937	.067458	-.067458	1.946	.003
GW	328	1	.067458	-.067458	1.946	.088138	-.036508	1.956	.003
GW	329	1	.088138	-.036508	1.956	.0954	0	1.965	.003
GW	330	1	.0954	0	1.965	.088138	.036508	1.974	.003
GW	331	1	.088138	.036508	1.974	.067458	.067458	1.984	.003
GW	332	1	.067458	.067458	1.984	.036508	.088138	1.993	.003
GW	333	1	.036508	.088138	1.993	0	.0954	2.003	.003
GW	334	1	0	.0954	2.003	-.036508	.088138	2.012	.003
GW	335	1	-.036508	.088138	2.012	-.067458	.067458	2.021	.003
GW	336	1	-.067458	.067458	2.021	-.088138	.036508	2.031	.003
GW	337	1	-.088138	.036508	2.031	-.0954	0	2.04	.003
GW	338	1	-.0954	0	2.04	-.088138	-.036508	2.049	.003
GW	339	1	-.088138	-.036508	2.049	-.067458	-.067458	2.059	.003
GW	340	1	-.067458	-.067458	2.059	-.036508	-.088138	2.068	.003
GW	341	1	-.036508	-.088138	2.068	0	-.0954	2.078	.003
GW	342	1	0	-.0954	2.078	.036508	-.088138	2.087	.003
GW	343	1	.036508	-.088138	2.087	.067458	-.067458	2.096	.003
GW	344	1	.067458	-.067458	2.096	.088138	-.036508	2.106	.003
GW	345	1	.088138	-.036508	2.106	.0954	0	2.115	.003
GW	346	1	.0954	0	2.115	.088138	.036508	2.124	.003
GW	347	1	.088138	.036508	2.124	.067458	.067458	2.134	.003
GW	348	1	.067458	.067458	2.134	.036508	.088138	2.143	.003
GW	349	1	.036508	.088138	2.143	0	.0954	2.153	.003
GW	350	1	0	.0954	2.153	-.036508	.088138	2.162	.003
GW	351	1	-.036508	.088138	2.162	-.067458	.067458	2.171	.003
GW	352	1	-.067458	.067458	2.171	-.088138	.036508	2.181	.003
GW	353	1	-.088138	.036508	2.181	-.0954	0	2.19	.003
GW	354	1	-.0954	0	2.19	-.088138	-.036508	2.199	.003
GW	355	1	-.088138	-.036508	2.199	-.067458	-.067458	2.209	.003
GW	356	1	-.067458	-.067458	2.209	-.036508	-.088138	2.218	.003
GW	357	1	-.036508	-.088138	2.218	0	-.0954	2.228	.003
GW	358	1	0	-.0954	2.228	.036508	-.088138	2.237	.003
GW	359	1	.036508	-.088138	2.237	.067458	-.067458	2.246	.003
GW	360	1	.067458	-.067458	2.246	.088138	-.036508	2.256	.003
GW	361	1	.088138	-.036508	2.256	.0954	0	2.265	.003
GW	362	1	.0954	0	2.265	.088138	.036508	2.274	.003
GW	363	1	.088138	.036508	2.274	.067458	.067458	2.284	.003
GW	364	1	.067458	.067458	2.284	.036508	.088138	2.293	.003
GW	365	1	.036508	.088138	2.293	0	.0954	2.303	.003
GW	366	1	0	.0954	2.303	-.036508	.088138	2.312	.003
GW	367	1	-.036508	.088138	2.312	-.067458	.067458	2.321	.003
GW	368	1	-.067458	.067458	2.321	-.088138	.036508	2.331	.003
GW	369	1	-.088138	.036508	2.331	-.0954	0	2.34	.003
GW	370	1	-.0954	0	2.34	-.088138	-.036508	2.349	.003
GW	371	1	-.088138	-.036508	2.349	-.067458	-.067458	2.359	.003
GW	372	1	-.067458	-.067458	2.359	-.036508	-.088138	2.368	.003
GW	373	1	-.036508	-.088138	2.368	0	-.0954	2.378	.003
GW	374	1	0	-.0954	2.378	.036508	-.088138	2.387	.003
GW	375	1	.036508	-.088138	2.387	.067458	-.067458	2.396	.003
GW	376	1	.067458	-.067458	2.396	.088138	-.036508	2.406	.003
GW	377	1	.088138	-.036508	2.406	.0954	0	2.415	.003
GW	378	1	.0954	0	2.415	.088138	.036508	2.424	.003
GW	379	1	.088138	.036508	2.424	.067458	.067458	2.434	.003
GW	380	1	.067458	.067458	2.434	.036508	.088138	2.443	.003
GW	381	1	.036508	.088138	2.443	0	.0954	2.453	.003
GW	382	1	0	.0954	2.453	-.036508	.088138	2.462	.003
GW	383	1	-.036508	.088138	2.462	-.067458	.067458	2.471	.003
GW	384	1	-.067458	.067458	2.471	-.088138	.036508	2.481	.003
GW	385	1	-.088138	.036508	2.481	-.0954	0	2.49	.003
GW	386	1	-.0954	0	2.49	-.088138	-.036508	2.499	.003
GW	387	1	-.088138	-.036508	2.499	-.067458	-.067458	2.509	.003
GW	388	1	-.067458	-.067458	2.509	-.036508	-.088138	2.518	.003
GW	389	1	-.036508	-.088138	2.518	0	-.0954	2.528	.003
GW	390	1	0	-.0954	2.528	.036508	-.088138	2.537	.003
GW	391	1	.036508	-.088138	2.537	.067458	-.067458	2.546	.003
GW	392	1	.067458	-.067458	2.546	.088138	-.036508	2.556	.003
GW	393	1	.088138	-.036508	2.556	.0954	0	2.565	.003
GW	394	1	.0954	0	2.565	.088138	.036508	2.574	.003
GW	395	1	.088138	.036508	2.574	.067458	.067458	2.584	.003
GW	396	1	.067458	.067458	2.584	.036508	.088138	2.593	.003
GW	397	1	.036508	.088138	2.593	0	.0954	2.603	.003
GW	398	1	0	.0954	2.603	-.036508	.088138	2.612	.003
GW	399	1	-.036508	.088138	2.612	-.067458	.067458	2.621	.003
GW	400	1	-.067458	.067458	2.621	-.088138	.036508	2.631	.003
GW	401	1	-.088138	.036508	2.631	-.0954	0	2.64	.003
GW	402	1	-.0954	0	2.64	-.088138	-.036508	2.649	.003
GW	403	1	-.088138	-.036508	2.649	-.067458	-.067458	2.659	.003
GW	404	1	-.067458	-.067458	2.659	-.036508	-.088138	2.668	.003
GW	405	1	-.036508	-.088138	2.668	0	-.0954	2.678	.003
GW	406	1	0	-.0954	2.678	.036508	-.088138	2.687	.003
GW	407	1	.036508	-.088138	2.687	.067458	-.067458	2.696	.003
GW	408	1	.067458	-.067458	2.696	.088138	-.036508	2.706	.003
GW	409	1	.088138	-.036508	2.706	.0954	0	2.715	.003
GW	410	1	.0954	0	2.715	.088138	.036508	2.724	.003
GW	411	1	.088138	.036508	2.724	.067458	.067458	2.734	.003
GW	412	1	.067458	.067458	2.734	.036508	.088138	2.743	.003
GW	413	1	.036508	.088138	2.743	0	.0954	2.753	.003
GW	414	1	0	.0954	2.753	-.036508	.088138	2.762	.003
GW	415	1	-.036508	.088138	2.762	-.067458	.067458	2.771	.003
GW	416	1	-.067458	.067458	2.771	-.088138	.036508	2.781	.003
GW	417	1	-.088138	.036508	2.781	-.0954	0	2.79	.003
GW	418	1	-.0954	0	2.79	-.088138	-.036508	2.799	.003
GW	419	1	-.088138	-.036508	2.799	-.067458	-.067458	2.809	.003
GW	420	1	-.067458	-.067458	2.809	-.036508	-.088138	2.818	.003
GW	421	1	-.036508	-.088138	2.818	0	-.0954	2.828	.003
GW	422	1	0	-.0954	2.828	.036508	-.088138	2.837	.003
GW	423	1	.036508	-.088138	2.837	.067458	-.067458	2.846	.003
GW	424	1	.067458	-.067458	2.846	.088138	-.036508	2.856	.003
GW	425	1	.088138	-.036508	2.856	.0954	0	2.865	.003
GW	426	1	.0954	0	2.865	.088138	.036508	2.874	.003
GW	427	1	.088138	.036508	2.874	.067458	.067458	2.884	.003
GW	428	1	.067458	.067458	2.884	.036508	.088138	2.893	.003
GW	429	1	.036508	.088138	2.893	0	.0954	2.903	.003
GW	430	1	0	.0954	2.903	-.036508	.088138	2.912	.003
GW	431	1	-.036508	.088138	2.912	-.067458	.067458	2.921	.003
GW	432	1	-.067458	.067458	2.921	-.088138	.036508	2.931	.003
GW	433	1	-.088138	.036508	2.931	-.0954	0	2.94	.003
GW	434	1	-.0954	0	2.94	-.088138	-.036508	2.949	.003
GW	435	1	-.088138	-.036508	2.949	-.067458	-.067458	2.959	.003
GW	436	1	-.067458	-.067458	2.959	-.036508	-.088138	2.968	.003
GW	437	1	-.036508	-.088138	2.968	0	-.0954	2.978	.003
GW	438	1	0	-.0954	2.978	.036508	-.088138	2.987	.003
GW	439	1	.036508	-.088138	2.987	.067458	-.067458	2.996	.003
GW	440	1	.067458	-.067458	2.996	.088138	-.036508	3.006	.003
GW	441	1	.088138	-.036508	3.006	.0954	0	3.015	.003
GW	442	3	.0954	0	3.015	0	0	3.015	.003
GW	443	1	0	0	0	0	0	0.015	.003
GE	0
GN	-1
EK
EX	0	443	1	0	1	0	0	0
FR	0	0	0	0	500	0
EN
